   16
 
 N     0.000000     0.000000     0.000000
 C     0.000000     0.000000     1.440000
 C     1.212436     0.000000     2.140000
 C     1.212436     0.000000     3.540000
 C     0.000000     0.000000     4.240000
 C    -1.212436     0.000000     3.540000
 C    -1.212436     0.000000     2.140000
 H     2.155537     0.000000     1.595500
 H     2.155537     0.000000     4.084500
 N     0.000000     0.000000     5.680000
 H    -2.155537     0.000000     4.084500
 H    -2.155537     0.000000     1.595500
 O    -1.074451     0.000000     6.236467
 O     1.074548     0.000000     6.236279
 H    -0.950352     0.000000    -0.336000
 H     0.475176     0.823029    -0.336000
